src/applications/data_sets/raw/IEEE3G9B_V23_bus5smallload.raw
0  100.000
 0,    100.00, 33, 0, 0, 60.00       / October 01, 2013 15:59:49
 0,    100.00, 33, 0, 0, 60.00       / October 01, 2013 15:59:49
      1, 3,     0.000,     0.000,     0.000,     0.000,   1,1.04000,   0.0000,'Bus1        ', 16.5000,   1
      2, 2,     0.000,     0.000,     0.000,     0.000,   1,1.02533,  10.0301,'Bus 2       ', 18.0000,   1
      3, 2,     0.000,     0.000,     0.000,     0.000,   1,1.02536,   5.2158,'Bus 3       ', 13.8000,   1
      4, 1,     0.000,     0.000,     0.000,     0.000,   1,1.00186,  -2.1227,'Bus 4       ',230.0000,   1
      5, 1,    40.000,     8.000,     0.000,     0.000,   1,0.98163,  -3.6538,'Bus 5       ',230.0000,   1
      6, 1,     0.000,     0.000,     0.000,     0.000,   1,1.00252,   2.4384,'Bus 6       ',230.0000,   1
      7, 1,   100.000,    35.000,     0.000,     0.000,   1,0.98127,   1.0549,'Bus 7       ',230.0000,   1
      8, 1,     0.000,     0.000,     0.000,     0.000,   1,0.99356,   4.2908,'Bus 8       ',230.0000,   1
      9, 1,   125.000,    50.000,     0.000,     0.000,   1,0.96619,  -4.0568,'Bus 9       ',230.0000,   1
0
     1,'1 ',    67.000,    70.108,  9900.000, -9900.000,1.04000,     0,   819.000,   0.00000,   1.00000,   0.00000,   0.00000,   1.00000,1,  100.0,   819.000,     0.000
     2,'1 ',   163.000,    60.287,  9900.000, -9900.000,1.02533,     0,   819.000,   0.00000,   1.00000,   0.00000,   0.00000,   1.00000,1,  100.0,   819.000,     0.000
     3,'1 ',    85.000,    42.023,  9900.000, -9900.000,1.02536,     0,   819.000,   0.00000,   1.00000,   0.00000,   0.00000,   1.00000,1,  100.0,   819.000,     0.000
0 / END OF GENERATOR DATA, BEGIN BRANCH DATA
      1,      4,'1 ',  0.00000,  0.05760,  0.00000,   0.00,   0.00,   0.00,0.00000,000.000, 0.00000, 0.00000, 0.00000, 0.00000, 1
      2,      8,'1 ',  0.00000,  0.06250,  0.00000,   0.00,   0.00,   0.00,0.00000,000.000, 0.00000, 0.00000, 0.00000, 0.00000, 1
      3,      6,'1 ',  0.00000,  0.05860,  0.00000,   0.00,   0.00,   0.00,0.00000,000.000, 0.00000, 0.00000, 0.00000, 0.00000, 1
      4,      5,'1 ',  0.00260,  0.04600,  0.00000,   0.00,   0.00,   0.00,0.00000,000.000, 0.00000, 0.00000, 0.00000, 0.00000, 1
      4,      9,'1 ',  0.00000,  0.08500,  0.00000,   0.00,   0.00,   0.00,0.00000,000.000, 0.00000, 0.00000, 0.00000, 0.00000, 1
      5,      6,'1 ',  0.00000,  0.17000,  0.00000,   0.00,   0.00,   0.00,1.00000,  0.000, 0.00000, 0.00000,00.00000,00.00000, 1
      6,      7,'1 ',  0.00000,  0.10080,  0.00000,   0.00,   0.00,   0.00,1.00000,  0.000, 0.00000, 0.00000,00.00000,00.00000, 1
      7,      8,'1 ',  0.00000,  0.07200,  0.00000,   0.00,   0.00,   0.00,1.00000,  0.000, 0.00000, 0.00000,00.00000,00.00000, 1
      8,      9,'1 ',  0.00000,  0.16100,  0.00000,   0.00,   0.00,   0.00,1.00000,  0.000, 0.00000, 0.00000,00.00000,00.00000, 1
0 / END OF BRANCH DATA, BEGIN TRANSFORMER ADJUSTMENT DATA
0 / END OF TRANSFORMER ADJUSTMENT DATA, BEGIN AREA DATA
   1,      0,     0.0,  1.000,'1           '
0 / END OF AREA DATA, BEGIN TWO-TERMINAL DC DATA
0 / END OF TWO-TERMINAL DC DATA, BEGIN SWITCHED SHUNT DATA
0 / END OF SWITCHED SHUNT DATA, BEGIN IMPEDANCE CORRECTION DATA
0 / END OF IMPEDANCE CORRECTION DATA, BEGIN MULTI-TERMINAL DC DATA
0 / END OF MULTI-TERMINAL DC DATA, BEGIN MULTI-SECTION LINE DATA
0 / END OF MULTI-SECTION LINE DATA, BEGIN ZONE DATA
    1,'1           '
0 / END OF ZONE DATA, BEGIN INTER-AREA TRANSFER DATA
0 / END OF INTER-AREA TRANSFER DATA, BEGIN OWNER DATA
    1,'1           '
0 / END OF OWNER DATA, BEGIN FACTS DEVICE DATA
